IEEE123Regulators.DSS
!DEFINE TRANSFORMERS FOR REGULATORS
! Have to assume basically zero impedance regulators to match the test case
new transformer.reg2a phases=3          windings=2        buses=[9     9r]   conns=[Wye Wye]       kvs=[2.402 2.402] kvas=[1000 1000] XHL=.01 %LoadLoss=0.00001 ppm=0.0
new transformer.reg3a phases=3          windings=2        buses=[25   25r]   conns=[Wye Wye]       kvs=[2.402 2.402] kvas=[1000 1000] XHL=.01 %LoadLoss=0.00001 ppm=0.0
new transformer.reg4a phases=3          windings=2        buses=[160 160r]   conns=[Wye Wye]       kvs=[2.402 2.402] kvas=[1000 1000] XHL=.01 %LoadLoss=0.00001 ppm=0.0


! POINT REGULATOR CONTROLS TO REGULATOR TRANSFORMER AND SET PARAMETERS
new regcontrol.creg2a               transformer=reg2a winding=2         vreg=120     band=2  ptratio=20 ctprim=50  R=0.4   X=0.4
new regcontrol.creg3a               transformer=reg3a winding=2         vreg=120     band=1  ptratio=20 ctprim=50  R=0.4   X=0.4
new regcontrol.creg4a               transformer=reg4a winding=2         vreg=120     band=2  ptratio=20 ctprim=300 R=0.6   X=1.3

! NOTE: WHEN LIKE= IS USED, IT IS NECESSARY TO SPECIFY ONLY THOSE PROPERTIES THAT ARE DIFFERENT